<?xml version="1.0" encoding="UTF-8"?>

<!-- generated on qui 13 ago 2020 13:34:14 -03 by Eclipse SUMO netedit Version 1.6.0
<configuration xmlns:xsi="http://www.w3.org/2001/XMLSchema-instance" xsi:noNamespaceSchemaLocation="http://sumo.dlr.de/xsd/netconvertConfiguration.xsd">

    <input>
        <sumo-net-file value="/usr/local/lib/python2.7/dist-packages/mininet_wifi-2.5-py2.7.egg/mn_wifi/sumo/data/new-york2.net.xml"/>
    </input>

    <output>
        <output-file value="/usr/local/lib/python2.7/dist-packages/mininet_wifi-2.5-py2.7.egg/mn_wifi/sumo/data/new-york2.net.xml"/>
        <output.street-names value="true"/>
    </output>

    <processing>
        <geometry.min-radius.fix.railways value="false"/>
        <geometry.max-grade.fix value="false"/>
        <offset.disable-normalization value="true"/>
        <lefthand value="false"/>
    </processing>

    <junctions>
        <no-turnarounds value="true"/>
        <junctions.corner-detail value="0"/>
        <junctions.limit-turn-speed value="-1"/>
        <rectangular-lane-cut value="false"/>
    </junctions>

    <pedestrian>
        <walkingareas value="false"/>
    </pedestrian>

    <report>
        <aggregate-warnings value="5"/>
    </report>

</configuration>
-->

<net version="1.6" xmlns:xsi="http://www.w3.org/2001/XMLSchema-instance" xsi:noNamespaceSchemaLocation="http://sumo.dlr.de/xsd/net_file.xsd">

    <location netOffset="-581679.06,-4507506.70" convBoundary="0.00,0.00,5110.80,5425.50" origBoundary="-74.032723,40.710904,-73.972272,40.762901" projParameter="+proj=utm +zone=18 +ellps=WGS84 +datum=WGS84 +units=m +no_defs"/>

    <type id="highway.bridleway" priority="1" numLanes="1" speed="2.78" allow="pedestrian" oneway="1" width="2.00"/>
    <type id="highway.bus_guideway" priority="1" numLanes="1" speed="8.33" allow="bus" oneway="1"/>
    <type id="highway.cycleway" priority="1" numLanes="1" speed="5.56" allow="bicycle" oneway="0" width="1.00"/>
    <type id="highway.footway" priority="1" numLanes="1" speed="2.78" allow="pedestrian" oneway="1" width="2.00"/>
    <type id="highway.ford" priority="1" numLanes="1" speed="2.78" allow="army" oneway="0"/>
    <type id="highway.living_street" priority="3" numLanes="1" speed="2.78" disallow="tram rail_urban rail rail_electric ship" oneway="0"/>
    <type id="highway.motorway" priority="13" numLanes="2" speed="44.44" allow="private emergency authority army vip passenger hov taxi bus coach delivery truck trailer motorcycle evehicle custom1 custom2" oneway="1"/>
    <type id="highway.motorway_link" priority="12" numLanes="1" speed="22.22" allow="private emergency authority army vip passenger hov taxi bus coach delivery truck trailer motorcycle evehicle custom1 custom2" oneway="1"/>
    <type id="highway.path" priority="1" numLanes="1" speed="2.78" allow="pedestrian bicycle" oneway="1" width="2.00"/>
    <type id="highway.pedestrian" priority="1" numLanes="1" speed="2.78" allow="pedestrian" oneway="1" width="2.00"/>
    <type id="highway.primary" priority="9" numLanes="2" speed="27.78" disallow="tram rail_urban rail rail_electric ship" oneway="0"/>
    <type id="highway.primary_link" priority="8" numLanes="1" speed="22.22" disallow="tram rail_urban rail rail_electric ship" oneway="0"/>
    <type id="highway.raceway" priority="14" numLanes="2" speed="83.33" allow="vip" oneway="0"/>
    <type id="highway.residential" priority="4" numLanes="1" speed="13.89" disallow="tram rail_urban rail rail_electric ship" oneway="0"/>
    <type id="highway.secondary" priority="7" numLanes="2" speed="27.78" disallow="tram rail_urban rail rail_electric ship" oneway="0"/>
    <type id="highway.secondary_link" priority="6" numLanes="1" speed="22.22" disallow="tram rail_urban rail rail_electric ship" oneway="0"/>
    <type id="highway.service" priority="2" numLanes="1" speed="5.56" allow="pedestrian delivery bicycle" oneway="0"/>
    <type id="highway.services" priority="1" numLanes="1" speed="8.33" disallow="tram rail_urban rail rail_electric ship" oneway="0"/>
    <type id="highway.stairs" priority="1" numLanes="1" speed="1.39" allow="pedestrian" oneway="1" width="2.00"/>
    <type id="highway.step" priority="1" numLanes="1" speed="1.39" allow="pedestrian" oneway="1" width="2.00"/>
    <type id="highway.steps" priority="1" numLanes="1" speed="1.39" allow="pedestrian" oneway="1" width="2.00"/>
    <type id="highway.tertiary" priority="6" numLanes="1" speed="22.22" disallow="tram rail_urban rail rail_electric ship" oneway="0"/>
    <type id="highway.tertiary_link" priority="5" numLanes="1" speed="22.22" disallow="tram rail_urban rail rail_electric ship" oneway="0"/>
    <type id="highway.track" priority="1" numLanes="1" speed="5.56" disallow="tram rail_urban rail rail_electric ship" oneway="0"/>
    <type id="highway.trunk" priority="11" numLanes="2" speed="27.78" disallow="pedestrian bicycle tram rail_urban rail rail_electric ship" oneway="0"/>
    <type id="highway.trunk_link" priority="10" numLanes="1" speed="22.22" disallow="pedestrian bicycle tram rail_urban rail rail_electric ship" oneway="0"/>
    <type id="highway.unclassified" priority="5" numLanes="1" speed="13.89" disallow="tram rail_urban rail rail_electric ship" oneway="0"/>
    <type id="highway.unsurfaced" priority="1" numLanes="1" speed="8.33" disallow="tram rail_urban rail rail_electric ship" oneway="0"/>
    <type id="railway.light_rail" priority="15" numLanes="1" speed="27.78" allow="rail_urban" oneway="1"/>
    <type id="railway.preserved" priority="15" numLanes="1" speed="27.78" allow="rail" oneway="1"/>
    <type id="railway.rail" priority="15" numLanes="1" speed="83.33" allow="rail rail_electric" oneway="1"/>
    <type id="railway.subway" priority="15" numLanes="1" speed="27.78" allow="rail_urban" oneway="1"/>
    <type id="railway.tram" priority="15" numLanes="1" speed="13.89" allow="tram" oneway="1"/>

    <edge id=":2013903253_0" function="internal">
        <lane id=":2013903253_0_0" index="0" allow="rail_urban" speed="27.78" length="5.65" shape="2540.22,2857.27 2540.59,2858.89 2541.35,2859.76 2542.50,2859.89 2544.05,2859.25"/>
    </edge>
    <edge id=":2013903253_1" function="internal">
        <lane id=":2013903253_1_0" index="0" allow="rail_urban" speed="27.78" length="7.06" shape="2540.22,2857.27 2540.40,2859.35 2540.64,2860.78 2541.15,2862.13 2542.15,2863.95"/>
    </edge>
    <edge id=":2013903253_2" function="internal">
        <lane id=":2013903253_2_0" index="0" allow="rail_urban" speed="27.78" length="6.99" shape="2537.89,2862.56 2544.05,2859.25"/>
    </edge>
    <edge id=":2013903253_3" function="internal">
        <lane id=":2013903253_3_0" index="0" allow="rail_urban" speed="27.78" length="5.02" shape="2537.89,2862.56 2539.16,2862.16 2540.30,2862.26 2541.29,2862.86 2542.15,2863.95"/>
    </edge>
    <edge id=":2307164599_0" function="internal">
        <lane id=":2307164599_0_0" index="0" disallow="tram rail_urban rail rail_electric rail_fast ship" speed="11.18" length="0.30" shape="3229.10,3630.65 3228.84,3630.79"/>
    </edge>
    <edge id=":246580758_0" function="internal">
        <lane id=":246580758_0_0" index="0" disallow="tram rail_urban rail rail_electric rail_fast ship" speed="11.18" length="4.67" shape="2148.11,3854.32 2146.67,3854.18 2145.95,3853.66 2145.93,3852.76 2146.61,3851.50"/>
    </edge>
    <edge id=":2631319571_0" function="internal">
        <lane id=":2631319571_0_0" index="0" disallow="tram rail_urban rail rail_electric rail_fast ship" speed="11.18" length="5.02" shape="2779.88,3562.88 2784.25,3560.43"/>
    </edge>
    <edge id=":2631319579_0" function="internal">
        <lane id=":2631319579_0_0" index="0" disallow="tram rail_urban rail rail_electric rail_fast ship" speed="11.18" length="5.01" shape="2829.74,3667.00 2825.33,3669.35"/>
    </edge>
    <edge id=":2671667955_0" function="internal">
        <lane id=":2671667955_0_0" index="0" disallow="tram rail_urban rail rail_electric rail_fast ship" speed="11.18" length="5.00" shape="2245.66,3527.32 2241.27,3529.71"/>
    </edge>
    <edge id=":2703104396_0" function="internal">
        <lane id=":2703104396_0_0" index="0" disallow="tram rail_urban rail rail_electric rail_fast ship" speed="11.18" length="0.29" shape="3254.90,3616.67 3254.64,3616.81"/>
    </edge>
    <edge id=":2985573628_0" function="internal">
        <lane id=":2985573628_0_0" index="0" disallow="tram rail_urban rail rail_electric rail_fast ship" speed="11.18" length="2.98" shape="2324.52,3031.88 2323.00,3029.31"/>
    </edge>
    <edge id=":3009534487_0" function="internal">
        <lane id=":3009534487_0_0" index="0" disallow="tram rail_urban rail rail_electric rail_fast ship" speed="11.18" length="0.10" shape="3667.57,3305.79 3667.57,3305.79"/>
    </edge>
    <edge id=":3019039006_0" function="internal">
        <lane id=":3019039006_0_0" index="0" disallow="tram rail_urban rail rail_electric rail_fast ship" speed="11.18" length="0.30" shape="3621.31,3061.23 3621.04,3061.37"/>
        <lane id=":3019039006_0_1" index="1" disallow="tram rail_urban rail rail_electric rail_fast ship" speed="11.18" length="0.30" shape="3619.79,3058.41 3619.53,3058.55"/>
    </edge>
    <edge id=":3019039006_2" function="internal">
        <lane id=":3019039006_2_0" index="0" disallow="tram rail_urban rail rail_electric rail_fast ship" speed="11.18" length="2.34" shape="3619.79,3058.41 3618.35,3058.27 3617.62,3057.76"/>
    </edge>
    <edge id=":3019039006_6" function="internal">
        <lane id=":3019039006_6_0" index="0" disallow="tram rail_urban rail rail_electric rail_fast ship" speed="11.18" length="2.34" shape="3617.62,3057.76 3617.60,3056.86 3618.27,3055.59"/>
    </edge>
    <edge id=":3019039006_3" function="internal">
        <lane id=":3019039006_3_0" index="0" disallow="tram rail_urban rail rail_electric rail_fast ship" speed="11.18" length="0.30" shape="3616.49,3052.92 3616.76,3052.77"/>
        <lane id=":3019039006_3_1" index="1" disallow="tram rail_urban rail rail_electric rail_fast ship" speed="11.18" length="0.30" shape="3618.01,3055.73 3618.27,3055.59"/>
    </edge>
    <edge id=":3019039006_5" function="internal">
        <lane id=":3019039006_5_0" index="0" disallow="tram rail_urban rail rail_electric rail_fast ship" speed="11.18" length="2.34" shape="3618.01,3055.73 3619.44,3055.87 3620.18,3056.38"/>
    </edge>
    <edge id=":3019039006_7" function="internal">
        <lane id=":3019039006_7_0" index="0" disallow="tram rail_urban rail rail_electric rail_fast ship" speed="11.18" length="2.34" shape="3620.18,3056.38 3620.20,3057.28 3619.53,3058.55"/>
    </edge>
    <edge id=":3236324362_0" function="internal">
        <lane id=":3236324362_0_0" index="0" allow="pedestrian delivery bicycle" speed="8.37" length="7.77" shape="2316.28,3154.95 2315.96,3153.56 2316.54,3152.15 2317.99,3150.69 2320.32,3149.21"/>
    </edge>
    <edge id=":3236324362_1" function="internal">
        <lane id=":3236324362_1_0" index="0" allow="pedestrian delivery bicycle" speed="5.56" length="4.67" shape="2316.28,3154.95 2316.40,3153.51 2316.91,3152.78 2317.80,3152.74 2319.08,3153.41"/>
    </edge>
    <edge id=":3236324362_2" function="internal">
        <lane id=":3236324362_2_0" index="0" disallow="tram rail_urban rail rail_electric rail_fast ship" speed="11.18" length="9.41" shape="2312.06,3153.72 2320.32,3149.21"/>
    </edge>
    <edge id=":3236324362_3" function="internal">
        <lane id=":3236324362_3_0" index="0" allow="pedestrian delivery bicycle" speed="8.37" length="7.77" shape="2312.06,3153.72 2314.57,3152.56 2316.58,3152.12 2318.08,3152.41 2319.08,3153.41"/>
    </edge>
    <edge id=":3236324365_0" function="internal">
        <lane id=":3236324365_0_0" index="0" allow="pedestrian delivery bicycle" speed="5.56" length="10.18" shape="2323.94,3162.26 2324.92,3164.87 2324.83,3167.17 2323.66,3169.15 2321.43,3170.82"/>
    </edge>
    <edge id=":3236324365_1" function="internal">
        <lane id=":3236324365_1_0" index="0" allow="pedestrian delivery bicycle" speed="5.56" length="4.67" shape="2323.94,3162.26 2323.81,3163.70 2323.30,3164.43 2322.41,3164.47 2321.13,3163.80"/>
    </edge>
    <edge id=":3236324365_2" function="internal">
        <lane id=":3236324365_2_0" index="0" allow="pedestrian delivery bicycle" speed="5.56" length="5.00" shape="2319.90,3168.01 2321.00,3167.19 2321.57,3166.21 2321.61,3165.08 2321.13,3163.80"/>
    </edge>
    <edge id=":3236324365_3" function="internal">
        <lane id=":3236324365_3_0" index="0" allow="pedestrian delivery bicycle" speed="5.56" length="4.67" shape="2319.90,3168.01 2321.33,3168.14 2322.07,3168.65 2322.10,3169.54 2321.43,3170.82"/>
    </edge>
    <edge id=":3236324368_0" function="internal">
        <lane id=":3236324368_0_0" index="0" allow="pedestrian delivery bicycle" speed="8.37" length="7.75" shape="2268.02,3181.51 2267.71,3180.14 2268.28,3178.72 2269.72,3177.26 2272.05,3175.76"/>
    </edge>
    <edge id=":3236324368_1" function="internal">
        <lane id=":3236324368_1_0" index="0" allow="pedestrian delivery bicycle" speed="5.56" length="4.67" shape="2268.02,3181.51 2268.14,3180.08 2268.65,3179.34 2269.54,3179.31 2270.82,3179.97"/>
    </edge>
    <edge id=":3236324368_2" function="internal">
        <lane id=":3236324368_2_0" index="0" disallow="tram rail_urban rail rail_electric rail_fast ship" speed="11.18" length="9.38" shape="2263.80,3180.23 2272.05,3175.76"/>
    </edge>
    <edge id=":3236324368_3" function="internal">
        <lane id=":3236324368_3_0" index="0" allow="pedestrian delivery bicycle" speed="8.37" length="7.74" shape="2263.80,3180.23 2266.32,3179.11 2268.33,3178.69 2269.83,3178.98 2270.82,3179.97"/>
    </edge>
    <edge id=":3236324370_0" function="internal">
        <lane id=":3236324370_0_0" index="0" allow="pedestrian delivery bicycle" speed="5.56" length="4.35" shape="2282.89,3195.35 2282.11,3194.22 2281.27,3193.57 2280.37,3193.39 2279.42,3193.69"/>
    </edge>
    <edge id=":3236324370_1" function="internal">
        <lane id=":3236324370_1_0" index="0" allow="pedestrian delivery bicycle" speed="5.56" length="10.18" shape="2282.89,3195.35 2281.90,3192.74 2281.99,3190.44 2283.16,3188.46 2285.40,3186.79"/>
    </edge>
    <edge id=":3236324370_2" function="internal">
        <lane id=":3236324370_2_0" index="0" allow="pedestrian delivery bicycle" speed="5.56" length="4.67" shape="2282.89,3195.35 2283.01,3193.92 2283.52,3193.18 2284.41,3193.15 2285.69,3193.81"/>
    </edge>
    <edge id=":3236324370_3" function="internal">
        <lane id=":3236324370_3_0" index="0" allow="pedestrian delivery bicycle" speed="5.56" length="5.01" shape="2286.93,3189.60 2285.83,3190.42 2285.25,3191.40 2285.21,3192.53 2285.69,3193.81"/>
    </edge>
    <edge id=":3236324370_4" function="internal">
        <lane id=":3236324370_4_0" index="0" allow="pedestrian delivery bicycle" speed="5.56" length="8.55" shape="2286.93,3189.60 2279.42,3193.69"/>
    </edge>
    <edge id=":3236324370_5" function="internal">
        <lane id=":3236324370_5_0" index="0" allow="pedestrian delivery bicycle" speed="5.56" length="4.67" shape="2286.93,3189.60 2285.49,3189.47 2284.76,3188.96 2284.73,3188.07 2285.40,3186.79"/>
    </edge>
    <edge id=":3236324370_6" function="internal">
        <lane id=":3236324370_6_0" index="0" allow="pedestrian delivery bicycle" speed="5.56" length="8.55" shape="2277.89,3190.88 2285.40,3186.79"/>
    </edge>
    <edge id=":3236324370_7" function="internal">
        <lane id=":3236324370_7_0" index="0" allow="pedestrian delivery bicycle" speed="5.56" length="9.48" shape="2277.89,3190.88 2280.16,3190.09 2282.22,3190.31 2284.06,3191.56 2285.69,3193.81"/>
    </edge>
    <edge id=":3236324370_8" function="internal">
        <lane id=":3236324370_8_0" index="0" allow="pedestrian delivery bicycle" speed="5.56" length="4.67" shape="2277.89,3190.88 2279.32,3191.01 2280.06,3191.52 2280.09,3192.41 2279.42,3193.69"/>
    </edge>
    <edge id=":3236324371_0" function="internal">
        <lane id=":3236324371_0_0" index="0" allow="pedestrian delivery bicycle" speed="5.56" length="7.05" shape="2279.24,3193.79 2277.59,3194.35 2276.08,3194.15 2274.72,3193.19 2273.49,3191.47"/>
    </edge>
    <edge id=":3236324371_1" function="internal">
        <lane id=":3236324371_1_0" index="0" allow="pedestrian delivery bicycle" speed="5.56" length="2.69" shape="2279.24,3193.79 2277.81,3193.66 2277.07,3193.15 2277.06,3192.79"/>
    </edge>
    <edge id=":3236324371_4" function="internal">
        <lane id=":3236324371_4_0" index="0" allow="pedestrian delivery bicycle" speed="5.56" length="1.98" shape="2277.06,3192.79 2277.04,3192.25 2277.71,3190.98"/>
    </edge>
    <edge id=":3236324371_2" function="internal">
        <lane id=":3236324371_2_0" index="0" allow="pedestrian delivery bicycle" speed="5.56" length="2.04" shape="2276.30,3189.93 2276.59,3190.48 2276.87,3190.90 2277.22,3191.10 2277.71,3190.98"/>
    </edge>
    <edge id=":3236324371_3" function="internal">
        <lane id=":3236324371_3_0" index="0" allow="pedestrian delivery bicycle" speed="5.56" length="2.13" shape="2276.30,3189.93 2276.17,3191.37 2275.78,3191.93"/>
    </edge>
    <edge id=":3236324371_5" function="internal">
        <lane id=":3236324371_5_0" index="0" allow="pedestrian delivery bicycle" speed="5.56" length="2.55" shape="2275.78,3191.93 2275.66,3192.11 2274.77,3192.14 2273.49,3191.47"/>
    </edge>
    <edge id=":3236324375_0" function="internal">
        <lane id=":3236324375_0_0" index="0" allow="pedestrian delivery bicycle" speed="5.56" length="10.18" shape="2295.52,3211.72 2296.51,3214.33 2296.42,3216.63 2295.25,3218.61 2293.02,3220.28"/>
    </edge>
    <edge id=":3236324375_1" function="internal">
        <lane id=":3236324375_1_0" index="0" allow="pedestrian delivery bicycle" speed="5.56" length="4.67" shape="2295.52,3211.72 2295.40,3213.16 2294.89,3213.89 2294.00,3213.93 2292.72,3213.26"/>
    </edge>
    <edge id=":3236324375_2" function="internal">
        <lane id=":3236324375_2_0" index="0" allow="pedestrian delivery bicycle" speed="5.56" length="5.00" shape="2291.49,3217.47 2292.59,3216.65 2293.16,3215.67 2293.20,3214.54 2292.72,3213.26"/>
    </edge>
    <edge id=":3236324375_3" function="internal">
        <lane id=":3236324375_3_0" index="0" allow="pedestrian delivery bicycle" speed="5.56" length="4.67" shape="2291.49,3217.47 2292.92,3217.60 2293.66,3218.11 2293.69,3219.00 2293.02,3220.28"/>
    </edge>
    <edge id=":3236324376_0" function="internal">
        <lane id=":3236324376_0_0" index="0" allow="pedestrian delivery bicycle" speed="5.56" length="4.67" shape="2258.87,3238.88 2257.43,3238.75 2256.69,3238.24 2256.66,3237.34 2257.33,3236.06"/>
    </edge>
    <edge id=":3564892565_0" function="internal">
        <lane id=":3564892565_0_0" index="0" disallow="tram rail_urban rail rail_electric rail_fast ship" speed="11.18" length="0.34" shape="2319.28,3001.21 2319.23,3000.85"/>
        <lane id=":3564892565_0_1" index="1" disallow="tram rail_urban rail rail_electric rail_fast ship" speed="11.18" length="0.34" shape="2322.45,3000.75 2322.40,3000.45"/>
    </edge>
    <edge id=":3564892566_0" function="internal">
        <lane id=":3564892566_0_0" index="0" disallow="tram rail_urban rail rail_electric rail_fast ship" speed="11.18" length="1.56" shape="2321.41,3013.41 2321.17,3012.86 2321.06,3012.46 2321.01,3012.05 2320.93,3011.45"/>
        <lane id=":3564892566_0_1" index="1" disallow="tram rail_urban rail rail_electric rail_fast ship" speed="11.18" length="1.56" shape="2324.28,3012.01 2324.16,3011.71 2324.13,3011.49 2324.12,3011.26 2324.09,3010.94"/>
    </edge>
    <edge id=":3564892567_0" function="internal">
        <lane id=":3564892567_0_0" index="0" disallow="tram rail_urban rail rail_electric rail_fast ship" speed="11.18" length="0.31" shape="2332.82,3036.85 2332.68,3036.53"/>
        <lane id=":3564892567_0_1" index="1" disallow="tram rail_urban rail rail_electric rail_fast ship" speed="11.18" length="0.31" shape="2335.66,3035.38 2335.63,3035.30 2335.61,3035.25 2335.59,3035.20 2335.56,3035.12"/>
    </edge>
    <edge id=":3564892568_0" function="internal">
        <lane id=":3564892568_0_0" index="0" disallow="tram rail_urban rail rail_electric rail_fast ship" speed="11.18" length="2.81" shape="2330.16,3041.43 2328.78,3038.97"/>
    </edge>
    <edge id=":3564892570_0" function="internal">
        <lane id=":3564892570_0_0" index="0" allow="bicycle" speed="5.56" length="0.10" width="1.00" shape="2380.69,3106.82 2380.69,3106.82"/>
    </edge>
    <edge id=":3857400402_0" function="internal">
        <lane id=":3857400402_0_0" index="0" disallow="tram rail_urban rail rail_electric rail_fast ship" speed="11.18" length="0.28" shape="3656.90,3221.65 3656.66,3221.79"/>
    </edge>
    <edge id=":3859048179_0" function="internal">
        <lane id=":3859048179_0_0" index="0" disallow="tram rail_urban rail rail_electric rail_fast ship" speed="11.18" length="0.10" shape="3475.35,3139.86 3475.35,3139.86"/>
        <lane id=":3859048179_0_1" index="1" disallow="tram rail_urban rail rail_electric rail_fast ship" speed="11.18" length="0.10" shape="3473.83,3137.04 3473.83,3137.04"/>
    </edge>
    <edge id=":3859048179_2" function="internal">
        <lane id=":3859048179_2_0" index="0" disallow="tram rail_urban rail rail_electric rail_fast ship" speed="11.18" length="2.34" shape="3473.83,3137.04 3472.39,3136.90 3471.66,3136.39"/>
    </edge>
    <edge id=":3859048179_6" function="internal">
        <lane id=":3859048179_6_0" index="0" disallow="tram rail_urban rail rail_electric rail_fast ship" speed="11.18" length="2.34" shape="3471.66,3136.39 3471.63,3135.49 3472.31,3134.22"/>
    </edge>
    <edge id=":3859048179_3" function="internal">
        <lane id=":3859048179_3_0" index="0" disallow="tram rail_urban rail rail_electric rail_fast ship" speed="11.18" length="0.10" shape="3470.79,3131.40 3470.79,3131.40"/>
        <lane id=":3859048179_3_1" index="1" disallow="tram rail_urban rail rail_electric rail_fast ship" speed="11.18" length="0.10" shape="3472.31,3134.22 3472.31,3134.22"/>
    </edge>
    <edge id=":3859048179_5" function="internal">
        <lane id=":3859048179_5_0" index="0" disallow="tram rail_urban rail rail_electric rail_fast ship" speed="11.18" length="2.34" shape="3472.31,3134.22 3473.75,3134.36 3474.48,3134.87"/>
    </edge>
    <edge id=":3859048179_7" function="internal">
        <lane id=":3859048179_7_0" index="0" disallow="tram rail_urban rail rail_electric rail_fast ship" speed="11.18" length="2.34" shape="3474.48,3134.87 3474.51,3135.77 3473.83,3137.04"/>
    </edge>
    <edge id=":387180916_0" function="internal">
        <lane id=":387180916_0_0" index="0" disallow="tram rail_urban rail rail_electric rail_fast ship" speed="11.18" length="15.17" shape="2345.91,3056.07 2343.66,3052.28 2341.46,3050.10 2339.18,3047.95 2336.71,3044.27"/>
        <lane id=":387180916_0_1" index="1" disallow="tram rail_urban rail rail_electric rail_fast ship" speed="11.18" length="15.17" shape="2348.83,3054.76 2346.56,3050.92 2344.34,3048.70 2342.04,3046.52 2339.54,3042.79"/>
    </edge>
    <edge id=":387180916_2" function="internal">
        <lane id=":387180916_2_0" index="0" allow="bicycle" speed="8.37" length="14.41" shape="2351.61,3052.73 2349.74,3050.72 2346.95,3050.03 2343.24,3050.66 2338.61,3052.61"/>
    </edge>
    <edge id=":387180916_3" function="internal">
        <lane id=":387180916_3_0" index="0" allow="bicycle" speed="8.37" length="16.45" shape="2351.61,3052.73 2349.11,3050.39 2345.61,3049.03 2341.85,3047.16 2338.57,3043.30"/>
    </edge>
    <edge id=":387180916_4" function="internal">
        <lane id=":387180916_4_0" index="0" disallow="tram rail_urban rail rail_electric rail_fast ship" speed="11.18" length="13.16" shape="2348.93,3044.13 2345.98,3045.44 2343.33,3046.23 2340.41,3047.13 2336.65,3048.78"/>
    </edge>
    <edge id=":387180916_5" function="internal">
        <lane id=":387180916_5_0" index="0" disallow="tram rail_urban rail rail_electric rail_fast ship" speed="11.18" length="6.93" shape="2348.93,3044.13 2345.81,3045.42 2343.20,3045.63 2342.34,3045.27"/>
    </edge>
    <edge id=":387180916_6" function="internal">
        <lane id=":387180916_6_0" index="0" disallow="tram rail_urban rail rail_electric rail_fast ship" speed="11.18" length="3.85" shape="2342.34,3045.27 2341.11,3044.75 2339.54,3042.79"/>
    </edge>
    <edge id=":3874681615_0" function="internal">
        <lane id=":3874681615_0_0" index="0" disallow="tram rail_urban rail rail_electric rail_fast ship" speed="11.18" length="0.30" shape="2085.36,4157.98 2085.62,4157.84"/>
    </edge>
    <edge id=":4015418428_0" function="internal">
        <lane id=":4015418428_0_0" index="0" disallow="tram rail_urban rail rail_electric rail_fast ship" speed="11.18" length="0.10" shape="2252.30,2883.76 2252.30,2883.76"/>
    </edge>
    <edge id=":4205565514_0" function="internal">
        <lane id=":4205565514_0_0" index="0" disallow="tram rail_urban rail rail_electric rail_fast ship" speed="11.18" length="8.21" shape="2636.28,3011.26 2637.63,3013.26 2638.87,3014.41 2640.12,3015.56 2641.47,3017.56"/>
        <lane id=":4205565514_0_1" index="1" disallow="tram rail_urban rail rail_electric rail_fast ship" speed="11.18" length="8.21" shape="2636.28,3011.26 2637.19,3013.49 2637.46,3015.17 2637.74,3016.84 2638.65,3019.07"/>
        <lane id=":4205565514_0_2" index="2" disallow="tram rail_urban rail rail_electric rail_fast ship" speed="11.18" length="8.21" shape="2633.46,3012.78 2634.37,3015.01 2634.64,3016.68 2634.92,3018.35 2635.83,3020.58"/>
        <lane id=":4205565514_0_3" index="3" disallow="tram rail_urban rail rail_electric rail_fast ship" speed="11.18" length="8.21" shape="2630.64,3014.29 2631.55,3016.52 2631.82,3018.19 2632.10,3019.86 2633.01,3022.09"/>
    </edge>
    <edge id=":4205565518_0" function="internal">
        <lane id=":4205565518_0_0" index="0" disallow="tram rail_urban rail rail_electric rail_fast ship" speed="11.18" length="8.21" shape="2705.83,3140.51 2707.19,3142.50 2708.44,3143.64 2709.68,3144.79 2711.05,3146.78"/>
        <lane id=":4205565518_0_1" index="1" disallow="tram rail_urban rail rail_electric rail_fast ship" speed="11.18" length="8.21" shape="2705.83,3140.51 2706.75,3142.74 2707.03,3144.41 2707.31,3146.08 2708.23,3148.31"/>
        <lane id=":4205565518_0_2" index="2" disallow="tram rail_urban rail rail_electric rail_fast ship" speed="11.18" length="8.21" shape="2703.02,3142.03 2703.94,3144.26 2704.22,3145.93 2704.50,3147.60 2705.42,3149.83"/>
        <lane id=":4205565518_0_3" index="3" disallow="tram rail_urban rail rail_electric rail_fast ship" speed="11.18" length="8.21" shape="2700.20,3143.56 2701.12,3145.78 2701.40,3147.45 2701.68,3149.13 2702.60,3151.35"/>
    </edge>
    <edge id=":4205565523_0" function="internal">
        <lane id=":4205565523_0_0" index="0" disallow="tram rail_urban rail rail_electric rail_fast ship" speed="11.18" length="8.21" shape="2777.08,3272.71 2778.45,3274.69 2779.71,3275.83 2780.96,3276.97 2782.33,3278.95"/>
        <lane id=":4205565523_0_1" index="1" disallow="tram rail_urban rail rail_electric rail_fast ship" speed="11.18" length="8.21" shape="2777.08,3272.71 2778.01,3274.93 2778.30,3276.60 2778.59,3278.27 2779.53,3280.49"/>
        <lane id=":4205565523_0_2" index="2" disallow="tram rail_urban rail rail_electric rail_fast ship" speed="11.18" length="8.21" shape="2774.27,3274.25 2775.21,3276.48 2775.50,3278.15 2775.79,3279.81 2776.72,3282.04"/>
        <lane id=":4205565523_0_3" index="3" disallow="tram rail_urban rail rail_electric rail_fast ship" speed="11.18" length="8.21" shape="2771.47,3275.80 2772.40,3278.02 2772.69,3279.69 2772.98,3281.36 2773.92,3283.58"/>
    </edge>
    <edge id=":4205565533_0" function="internal">
        <lane id=":4205565533_0_0" index="0" disallow="tram rail_urban rail rail_electric rail_fast ship" speed="11.18" length="8.21" shape="2853.53,3414.29 2854.89,3416.28 2856.14,3417.42 2857.38,3418.57 2858.75,3420.56"/>
        <lane id=":4205565533_0_1" index="1" disallow="tram rail_urban rail rail_electric rail_fast ship" speed="11.18" length="8.21" shape="2853.53,3414.29 2854.45,3416.52 2854.73,3418.19 2855.01,3419.86 2855.93,3422.09"/>
        <lane id=":4205565533_0_2" index="2" disallow="tram rail_urban rail rail_electric rail_fast ship" speed="11.18" length="8.21" shape="2850.71,3415.81 2851.64,3418.04 2851.92,3419.71 2852.20,3421.38 2853.12,3423.61"/>
        <lane id=":4205565533_0_3" index="3" disallow="tram rail_urban rail rail_electric rail_fast ship" speed="11.18" length="8.21" shape="2847.90,3417.34 2848.82,3419.56 2849.10,3421.24 2849.38,3422.91 2850.30,3425.13"/>
    </edge>
    <edge id=":4205565537_0" function="internal">
        <lane id=":4205565537_0_0" index="0" disallow="tram rail_urban rail rail_electric rail_fast ship" speed="11.18" length="0.10" shape="2938.88,3575.82 2938.88,3575.82"/>
        <lane id=":4205565537_0_1" index="1" disallow="tram rail_urban rail rail_electric rail_fast ship" speed="11.18" length="0.10" shape="2936.06,3577.34 2936.06,3577.34"/>
    </edge>
    <edge id=":42427371_0" function="internal">
        <lane id=":42427371_0_0" index="0" disallow="tram rail_urban rail rail_electric rail_fast ship" speed="11.18" length="9.03" shape="3242.84,2983.82 3244.31,2985.81 3246.07,2986.85 3248.11,2986.95 3250.43,2986.09"/>
    </edge>
    <edge id=":42427371_1" function="internal">
        <lane id=":42427371_1_0" index="0" disallow="tram rail_urban rail rail_electric rail_fast ship" speed="11.18" length="11.21" shape="3242.84,2983.82 3248.15,2993.69"/>
        <lane id=":42427371_1_1" index="1" disallow="tram rail_urban rail rail_electric rail_fast ship" speed="11.18" length="11.21" shape="3240.03,2985.33 3245.34,2995.20"/>
    </edge>
    <edge id=":42427371_3" function="internal">